@<TRIPOS>MOLECULE
gnp
   55    49     1    0    0
SMALL
NO_CHARGES

File converted by VEGA V1.5.1
@<TRIPOS>ATOM
      1 PA          0.1150    0.8860    0.4830 P.3       1 GNP500      0.0000
      2 O1A        -1.0430    0.6740   -0.4240 O.2       1 GNP500      0.0000
      3 O2A        -0.0230    1.8420    1.6100 O.2       1 GNP500      0.0000
      4 O3A         0.5780   -0.5260    1.0650 O.3       1 GNP500      0.0000
      5 O5'         1.3700    1.3120   -0.4030 O.3       1 GNP500      0.0000
      6 HT1         1.9790    2.8070    0.2900 Any       1 GNP500      0.0000
      7 HT2        -0.8580    3.7390   -0.3990 Any       1 GNP500      0.0000
      8 HT3        -0.1130    3.5090    0.9650 Any       1 GNP500      0.0000
      9 PB          0.4960   -0.8400    2.6290 P.3       1 GNP500      0.0000
     10 O1B        -0.7230   -0.1970    3.1800 O.2       1 GNP500      0.0000
     11 O2B         1.8170   -0.5270    3.2460 O.2       1 GNP500      0.0000
     12 N3B         0.2630   -2.5020    2.6220 N.3       1 GNP500      0.0000
     13 H3B         1.0290   -2.9350    2.1920 H         1 GNP500      0.0000
     14 PG          0.0990   -3.0900    4.1810 P.3       1 GNP500      0.0000
     15 O1G        -0.5840   -2.1160    5.0700 O.2       1 GNP500      0.0000
     16 O2G         1.5960   -3.3670    4.6390 O.2       1 GNP500      0.0000
     17 O3G        -0.7280   -4.4440    4.0310 O.2       1 GNP500      0.0000
     18 C5'         1.6490    0.6580   -1.6400 C.3       1 GNP500      0.0000
     19 H5'         0.7840    0.0690   -1.9490 H         1 GNP500      0.0000
     20 H5''        2.5050   -0.0050   -1.5210 H         1 GNP500      0.0000
     21 C4'         1.9650    1.6770   -2.7110 C.3       1 GNP500      0.0000
     22 H4'         1.0280    1.9580   -3.1940 H         1 GNP500      0.0000
     23 O4'         2.6620    2.7930   -2.0970 O.3       1 GNP500      0.0000
     24 C1'         4.0360    2.7400   -2.4300 C.3       1 GNP500      0.0000
     25 H1'         4.2470    3.6180   -3.0400 H         1 GNP500      0.0000
     26 N9          4.8110    2.8530   -1.1990 N.ar      1 GNP500      0.0000
     27 C4          4.7100    2.0560   -0.0830 C.ar      1 GNP500      0.0000
     28 N3          3.8670    1.0120    0.0740 N.ar      1 GNP500      0.0000
     29 C2          4.0060    0.4370    1.2590 C.ar      1 GNP500      0.0000
     30 N2          3.2500   -0.6210    1.5850 N.pl3     1 GNP500      0.0000
     31 H21         2.5710   -0.9860    0.9330 H         1 GNP500      0.0000
     32 H22         3.3600   -1.0570    2.4880 H         1 GNP500      0.0000
     33 N1          4.9000    0.8570    2.2130 N.ar      1 GNP500      0.0000
     34 H1          4.9230    0.3490    3.0840 H         1 GNP500      0.0000
     35 C6          5.7750    1.9290    2.0730 C.ar      1 GNP500      0.0000
     36 O6          6.5410    2.2220    2.9990 O.2       1 GNP500      0.0000
     37 C5          5.6400    2.5520    0.8070 C.ar      1 GNP500      0.0000
     38 N7          6.3100    3.6400    0.2650 N.ar      1 GNP500      0.0000
     39 C8          5.7870    3.7800   -0.9220 C.ar      1 GNP500      0.0000
     40 H8          6.0910    4.5470   -1.6210 H         1 GNP500      0.0000
     41 C2'         4.2760    1.4420   -3.1990 Hev       1 GNP500      0.0000
     42 H2'         4.5560    0.6230   -2.5320 Any       1 GNP500      0.0000
     43 O2'         5.2390    1.6840   -4.2060 O.3       1 GNP500      0.0000
     44 HO2'        5.8750    0.9680   -4.1680 Hev       1 GNP500      0.0000
     45 C3'         2.9030    1.1950   -3.8080 C.3       1 GNP500      0.0000
     46 H3'         2.7350    0.1470   -4.0500 H         1 GNP500      0.0000
     47 O3'         2.7110    1.9150   -5.0220 O.3       1 GNP500      0.0000
     48 H3T         3.4950    2.4430   -5.1770 H         1 GNP500      0.0000
     49 MG          3.3610   -2.0920    3.9270 Hev       1 GNP500      0.0000
     50 OT1         3.2490   -3.0790    1.8520 Hev       1 GNP500      0.0000
     51 HT11        4.0970   -3.5120    1.7480 Hev       1 GNP500      0.0000
     52 HT12        3.2760   -2.3470    1.2350 Hev       1 GNP500      0.0000
     53 OT2         3.4800   -1.1130    6.0050 Hev       1 GNP500      0.0000
     54 HT21        4.0190   -0.3330    5.8730 Hev       1 GNP500      0.0000
     55 HT22        4.0440   -1.6990    6.5120 Hev       1 GNP500      0.0000
@<TRIPOS>BOND
     1    1    4 1
     2    1    2 ar
     3    1    3 ar
     4    1    5 1
     5    4    9 1
     6    5   18 1
     7    9   12 1
     8    9   11 1
     9    9   10 1
    10   12   13 1
    11   12   14 1
    12   14   15 1
    13   14   16 1
    14   14   17 1
    15   18   19 1
    16   18   20 1
    17   18   21 1
    18   21   22 1
    19   21   23 1
    20   21   45 1
    21   23   24 1
    22   24   26 1
    23   24   41 1
    24   24   25 1
    25   26   27 ar
    26   26   39 ar
    27   27   28 ar
    28   27   37 ar
    29   28   29 ar
    30   29   30 1
    31   29   33 ar
    32   30   31 1
    33   30   32 1
    34   33   35 ar
    35   33   34 1
    36   35   37 ar
    37   35   36 1
    38   37   38 ar
    39   38   39 ar
    40   39   40 1
    41   41   45 1
    42   41   42 1
    43   41   43 1
    44   41   44 1
    45   42   44 1
    46   43   44 1
    47   45   46 1
    48   45   47 1
    49   47   48 1
@<TRIPOS>SUBSTRUCTURE
     1 GNP500      1 RESIDUE           1 A     GNP     0 ROOT
